[root]
type=Root
children=system
eventq_index=0
full_system=false
sim_quantum=0
time_sync_enable=false
time_sync_period=100000000000
time_sync_spin_threshold=100000000

[system]
type=System
children=bfs_queue_datapath clk_domain cpu_clk_domain cpu_voltage_domain dvfs_handler mem_ctrls membus voltage_domain
boot_osflags=a
cache_line_size=32
clk_domain=system.clk_domain
default_p_state=UNDEFINED
eventq_index=0
exit_on_work_items=false
init_param=0
kernel=
kernel_addr_check=true
kernel_extras=
kvm_vm=Null
load_addr_mask=18446744073709551615
load_offset=0
mem_mode=timing
mem_ranges=0:4294967295:0:0:0:0
memories=system.mem_ctrls
mmap_using_noreserve=false
multi_thread=false
num_work_ids=16
p_state_clk_gate_bins=20
p_state_clk_gate_max=1000000000000
p_state_clk_gate_min=1000
power_model=
readfile=
symbolfile=
thermal_components=
thermal_model=Null
work_begin_ckpt_count=0
work_begin_cpu_id_exit=-1
work_begin_exit_count=0
work_cpus_ckpt_count=0
work_end_ckpt_count=0
work_end_exit_count=0
work_item_id=-1
system_port=system.membus.slave[0]

[system.bfs_queue_datapath]
type=HybridDatapath
children=cache clk_domain
acceleratorId=64
acceleratorName=bfs_queue_datapath
acpCacheLatency=1
acpCacheMSHRs=16
acpCacheSize=128B
benchName=bfs_queue
cacheAssoc=4
cacheBandwidth=4
cacheHitLatency=1
cacheLineFlushLatency=12
cacheLineInvalidateLatency=12
cacheLineSize=32
cacheQueueSize=32
cacheSize=16kB
cactiCacheConfig=/workspace/gem5-aladdin/sweeps/machsuite/bfs_queue/3/bfs_queue-cache.cfg
cactiCacheQueueConfig=
clk_domain=system.bfs_queue_datapath.clk_domain
configFileName=/workspace/gem5-aladdin/sweeps/machsuite/bfs_queue/3/bfs_queue.cfg
cycleTime=5
default_p_state=UNDEFINED
dmaChunkSize=64
dmaSetupOverhead=30
enableAcp=false
enableStatsDump=true
eventq_index=0
executeStandalone=true
experimentName=
ignoreCacheFlush=false
invalidateOnDmaStore=true
l2cacheSize=128kB
maxDmaRequests=40
numDmaChannels=1
numOutStandingWalks=8
outputPrefix=/workspace/gem5-aladdin/sweeps/machsuite/bfs_queue/3/outputs/bfs_queue
p_state_clk_gate_bins=20
p_state_clk_gate_max=1000000000000
p_state_clk_gate_min=1000
pipelinedDma=false
power_model=
recordMemoryTrace=false
spadPorts=1
system=system
tlbAssoc=0
tlbBandwidth=4
tlbCactiConfig=/workspace/gem5-aladdin/sweeps/machsuite/bfs_queue/3/bfs_queue-tlb.cfg
tlbEntries=8
tlbHitLatency=20
tlbMissLatency=20
tlbPageBytes=4096
traceFileName=/workspace/gem5-aladdin/sweeps/machsuite/bfs_queue/3/../inputs/dynamic_trace.gz
useAcpCache=true
useAladdinDebugger=false
useDb=false
cache_port=system.bfs_queue_datapath.cache.cpu_side
spad_port=system.membus.slave[2]

[system.bfs_queue_datapath.cache]
type=Cache
children=prefetcher replacement_policy tags
addr_ranges=0:18446744073709551615:0:0:0:0
assoc=4
clk_domain=system.bfs_queue_datapath.clk_domain
clusivity=mostly_incl
data_latency=1
default_p_state=UNDEFINED
demand_mshr_reserve=1
eventq_index=0
is_read_only=false
max_miss_count=0
mshrs=16
p_state_clk_gate_bins=20
p_state_clk_gate_max=1000000000000
p_state_clk_gate_min=1000
power_model=
prefetch_on_access=true
prefetcher=system.bfs_queue_datapath.cache.prefetcher
replacement_policy=system.bfs_queue_datapath.cache.replacement_policy
response_latency=1
sequential_access=false
size=16384
system=system
tag_latency=1
tags=system.bfs_queue_datapath.cache.tags
tgts_per_mshr=20
warmup_percentage=0
write_allocator=Null
write_buffers=8
writeback_clean=false
cpu_side=system.bfs_queue_datapath.cache_port
mem_side=system.membus.slave[1]

[system.bfs_queue_datapath.cache.prefetcher]
type=StridePrefetcher
children=replacement_policy
block_size=32
cache_snoop=false
clk_domain=system.bfs_queue_datapath.clk_domain
default_p_state=UNDEFINED
degree=8
eventq_index=0
latency=1
max_conf=7
min_conf=0
on_data=true
on_inst=false
on_miss=false
on_read=true
on_write=true
p_state_clk_gate_bins=20
p_state_clk_gate_max=1000000000000
p_state_clk_gate_min=1000
power_model=
prefetch_on_access=true
queue_filter=true
queue_size=32
queue_squash=true
replacement_policy=system.bfs_queue_datapath.cache.prefetcher.replacement_policy
start_conf=4
sys=system
table_assoc=4
table_sets=16
tag_prefetch=true
thresh_conf=4
use_master_id=true
use_virtual_addresses=false

[system.bfs_queue_datapath.cache.prefetcher.replacement_policy]
type=RandomRP
eventq_index=0

[system.bfs_queue_datapath.cache.replacement_policy]
type=LRURP
eventq_index=0

[system.bfs_queue_datapath.cache.tags]
type=BaseSetAssoc
children=indexing_policy
assoc=4
block_size=32
clk_domain=system.bfs_queue_datapath.clk_domain
default_p_state=UNDEFINED
entry_size=32
eventq_index=0
indexing_policy=system.bfs_queue_datapath.cache.tags.indexing_policy
p_state_clk_gate_bins=20
p_state_clk_gate_max=1000000000000
p_state_clk_gate_min=1000
power_model=
replacement_policy=system.bfs_queue_datapath.cache.replacement_policy
sequential_access=false
size=16384
system=system
tag_latency=1
warmup_percentage=0

[system.bfs_queue_datapath.cache.tags.indexing_policy]
type=SetAssociative
assoc=4
entry_size=32
eventq_index=0
size=16384

[system.bfs_queue_datapath.clk_domain]
type=SrcClockDomain
clock=5000
domain_id=-1
eventq_index=0
init_perf_level=0
voltage_domain=system.cpu_voltage_domain

[system.clk_domain]
type=SrcClockDomain
clock=5000
domain_id=-1
eventq_index=0
init_perf_level=0
voltage_domain=system.voltage_domain

[system.cpu_clk_domain]
type=SrcClockDomain
clock=500
domain_id=-1
eventq_index=0
init_perf_level=0
voltage_domain=system.cpu_voltage_domain

[system.cpu_voltage_domain]
type=VoltageDomain
eventq_index=0
voltage=1.0

[system.dvfs_handler]
type=DVFSHandler
domains=
enable=false
eventq_index=0
sys_clk_domain=system.clk_domain
transition_latency=100000000

[system.mem_ctrls]
type=DRAMCtrl
IDD0=0.055
IDD02=0.0
IDD2N=0.032
IDD2N2=0.0
IDD2P0=0.0
IDD2P02=0.0
IDD2P1=0.032
IDD2P12=0.0
IDD3N=0.038
IDD3N2=0.0
IDD3P0=0.0
IDD3P02=0.0
IDD3P1=0.038
IDD3P12=0.0
IDD4R=0.157
IDD4R2=0.0
IDD4W=0.125
IDD4W2=0.0
IDD5=0.235
IDD52=0.0
IDD6=0.02
IDD62=0.0
VDD=1.5
VDD2=0.0
activation_limit=4
addr_mapping=RoRaBaCoCh
bank_groups_per_rank=0
banks_per_rank=8
burst_length=8
channels=1
clk_domain=system.clk_domain
conf_table_reported=true
default_p_state=UNDEFINED
device_bus_width=8
device_rowbuffer_size=1024
device_size=536870912
devices_per_rank=8
dll=true
eventq_index=0
in_addr_map=true
kvm_map=true
max_accesses_per_row=16
mem_sched_policy=frfcfs
min_writes_per_switch=16
null=false
p_state_clk_gate_bins=20
p_state_clk_gate_max=1000000000000
p_state_clk_gate_min=1000
page_policy=open_adaptive
power_model=
qos_masters=               
qos_policy=Null
qos_priorities=1
qos_priority_escalation=false
qos_q_policy=fifo
qos_syncro_scheduler=false
qos_turnaround_policy=Null
range=0:4294967295:6:19:0:0
ranks_per_channel=2
read_buffer_size=32
static_backend_latency=10000
static_frontend_latency=10000
tBURST=5000
tCCD_L=0
tCCD_L_WR=0
tCK=1250
tCL=13750
tCS=2500
tRAS=35000
tRCD=13750
tREFI=7800000
tRFC=260000
tRP=13750
tRRD=6000
tRRD_L=0
tRTP=7500
tRTW=2500
tWR=15000
tWTR=7500
tXAW=30000
tXP=6000
tXPDLL=0
tXS=270000
tXSDLL=0
write_buffer_size=64
write_high_thresh_perc=85
write_low_thresh_perc=50
port=system.membus.master[0]

[system.membus]
type=CoherentXBar
children=snoop_filter
clk_domain=system.clk_domain
default_p_state=UNDEFINED
eventq_index=0
forward_latency=4
frontend_latency=3
p_state_clk_gate_bins=20
p_state_clk_gate_max=1000000000000
p_state_clk_gate_min=1000
point_of_coherency=true
point_of_unification=true
power_model=
response_latency=2
snoop_filter=system.membus.snoop_filter
snoop_response_latency=4
system=system
use_default_range=false
width=16
master=system.mem_ctrls.port
slave=system.system_port system.bfs_queue_datapath.cache.mem_side system.bfs_queue_datapath.spad_port

[system.membus.snoop_filter]
type=SnoopFilter
eventq_index=0
lookup_latency=1
max_capacity=8388608
system=system

[system.voltage_domain]
type=VoltageDomain
eventq_index=0
voltage=1.0

